<?xml version='1.0' encoding='ISO-8859-1'?>
<febio_spec version="3.0">
	<Module type="solid" />
	<Control>
		<analysis>STATIC</analysis>
		<time_steps>10</time_steps>
		<step_size>0.1</step_size>
		<solver>
			<max_refs>15</max_refs>
			<max_ups>10</max_ups>
			<diverge_reform>1</diverge_reform>
			<reform_each_time_step>1</reform_each_time_step>
			<dtol>0.001</dtol>
			<etol>0.01</etol>
			<rtol>0</rtol>
			<lstol>0.9</lstol>
			<min_residual>1e-20</min_residual>
			<qnmethod>BFGS</qnmethod>
			<rhoi>0</rhoi>
		</solver>
		<time_stepper>
			<dtmin>0.01</dtmin>
			<dtmax>0.1</dtmax>
			<max_retries>5</max_retries>
			<opt_iter>10</opt_iter>
		</time_stepper>
	</Control>
	<Globals>
		<Constants>
			<T>0</T>
			<R>0</R>
			<Fc>0</Fc>
		</Constants>
	</Globals>
	<Material>
		<material id="1" name="Material1" type="Mooney-Rivlin">
			<density>1</density>
			<c1>0.9137410447602837</c1>
			<c2>0.09802702163595416</c2>
			<k>10.000059495366909</k>
		</material>
	</Material>
	<Mesh>
		<Nodes name="part1">
			<node id="1">77.883888245,63.633712769,45.870170593</node>
			<node id="2">76.773333956,63.759042593,46.914537704</node>
			<node id="3">76.65212859,64.925041763,46.544442598</node>
			<node id="4">77.750616978,64.853534064,45.520242658</node>
			<node id="5">76.052685314,63.742539141,48.241610567</node>
			<node id="6">75.810015367,64.991351171,47.801084573</node>
			<node id="7">75.645244427,63.810728703,49.69871468</node>
			<node id="8">75.341683762,65.173899728,49.25141003</node>
			<node id="9">75.554734073,63.972231077,51.204890887</node>
			<node id="10">75.231742779,65.431409692,50.880525284</node>
			<node id="11">75.706403021,64.097291744,52.717641114</node>
			<node id="12">75.485983432,65.513694014,52.587317628</node>
			<node id="13">75.937207929,64.015878561,54.227555696</node>
			<node id="14">75.712302452,65.432651943,54.206497634</node>
			<node id="15">76.507160437,63.921378574,55.643157781</node>
			<node id="16">76.145280917,65.379340445,55.706058979</node>
			<node id="17">77.041176383,63.9893319,57.069868407</node>
			<node id="18">76.705912183,65.392521195,57.187980011</node>
			<node id="19">77.687672929,64.077753906,58.441439573</node>
			<node id="20">77.367284422,65.42255396,58.615012059</node>
<!-- ... 1094 like lines cut -->
		</Nodes>
		<Elements type="quad4" name="Part1">
			<elem id="1">1,2,3,4</elem>
			<elem id="2">2,5,6,3</elem>
			<elem id="3">5,7,8,6</elem>
			<elem id="4">7,9,10,8</elem>
			<elem id="5">9,11,12,10</elem>
			<elem id="6">11,13,14,12</elem>
			<elem id="7">13,15,16,14</elem>
			<elem id="8">15,17,18,16</elem>
			<elem id="9">17,19,20,18</elem>
			<elem id="10">19,21,22,20</elem>
			<elem id="11">21,23,24,22</elem>
			<elem id="12">23,25,26,24</elem>
			<elem id="13">25,27,28,26</elem>
			<elem id="14">27,29,30,28</elem>
			<elem id="15">29,31,32,30</elem>
			<elem id="16">31,33,34,32</elem>
			<elem id="17">33,35,36,34</elem>
			<elem id="18">35,37,38,36</elem>
			<elem id="19">37,39,40,38</elem>
			<elem id="20">39,41,42,40</elem>
<!-- ... 1044 like lines cut -->
		</Elements>
		<NodeSet name="VAJ">
			<n id="1" />
			<n id="2" />
			<n id="7" />
			<n id="9" />
			<n id="15" />
			<n id="17" />
			<n id="19" />
			<n id="21" />
			<n id="23" />
			<n id="25" />
			<n id="27" />
			<n id="29" />
			<n id="31" />
			<n id="33" />
			<n id="35" />
			<n id="37" />
			<n id="41" />
			<n id="43" />
			<n id="45" />
			<n id="47" />
<!-- ... 18 like lines cut -->
		</NodeSet>
		<NodeSet name="STJ">
			<n id="85" />
			<n id="86" />
			<n id="89" />
			<n id="91" />
			<n id="93" />
			<n id="95" />
			<n id="97" />
			<n id="99" />
			<n id="101" />
			<n id="103" />
			<n id="105" />
			<n id="107" />
			<n id="109" />
			<n id="111" />
			<n id="113" />
			<n id="115" />
			<n id="117" />
			<n id="119" />
			<n id="121" />
			<n id="123" />
<!-- ... 35 like lines cut -->
		</NodeSet>
		<Surface name="PressureLoad1">
			<quad4 id="1">1,2,3,4</quad4>
			<quad4 id="2">2,5,6,3</quad4>
			<quad4 id="3">5,7,8,6</quad4>
			<quad4 id="4">7,9,10,8</quad4>
			<quad4 id="5">9,11,12,10</quad4>
			<quad4 id="6">11,13,14,12</quad4>
			<quad4 id="7">13,15,16,14</quad4>
			<quad4 id="8">15,17,18,16</quad4>
			<quad4 id="9">17,19,20,18</quad4>
			<quad4 id="10">19,21,22,20</quad4>
			<quad4 id="11">21,23,24,22</quad4>
			<quad4 id="12">23,25,26,24</quad4>
			<quad4 id="13">25,27,28,26</quad4>
			<quad4 id="14">27,29,30,28</quad4>
			<quad4 id="15">29,31,32,30</quad4>
			<quad4 id="16">31,33,34,32</quad4>
			<quad4 id="17">33,35,36,34</quad4>
			<quad4 id="18">35,37,38,36</quad4>
			<quad4 id="19">37,39,40,38</quad4>
			<quad4 id="20">39,41,42,40</quad4>
<!-- ... 1044 like lines cut -->
		</Surface>
	</Mesh>
	<MeshDomains>
		<ShellDomain name="Part1" mat="Material1">
			<shell_normal_nodal>1</shell_normal_nodal>
		</ShellDomain>
	</MeshDomains>
	<MeshData>
		<ElementData var="shell thickness" elem_set="Part1">
			<e lid="1">3.0843743587,3.0843743587,1.7116811635,1.9843670672</e>
			<e lid="2">3.0843743587,3.0843725678,1.9494773495,1.7116811635</e>
			<e lid="3">3.0843725678,3.0843744065,1.9512136642,1.9494773495</e>
			<e lid="4">3.0843744065,3.0843761364,1.736414245,1.9512136642</e>
			<e lid="5">3.0843761364,3.084373816,1.4510218628,1.736414245</e>
			<e lid="6">3.084373816,3.0843711819,1.3862395711,1.4510218628</e>
			<e lid="7">3.0843711819,3.0843762115,1.4367523966,1.3862395711</e>
			<e lid="8">3.0843762115,3.084376142,1.4166554335,1.4367523966</e>
			<e lid="9">3.084376142,3.0843743587,1.4393290494,1.4166554335</e>
			<e lid="10">3.0843743587,3.0843751466,1.5233006804,1.4393290494</e>
			<e lid="11">3.0843751466,3.084376773,1.6520508744,1.5233006804</e>
			<e lid="12">3.084376773,3.0843743587,1.9983980624,1.6520508744</e>
			<e lid="13">3.0843743587,3.0843743587,2.1629846179,1.9983980624</e>
			<e lid="14">3.0843743587,3.0843743587,2.2788584186,2.1629846179</e>
			<e lid="15">3.0843743587,3.0843743587,2.1774147493,2.2788584186</e>
			<e lid="16">3.0843743587,3.0843743587,2.1654141557,2.1774147493</e>
			<e lid="17">3.0843743587,3.0843744295,2.198256635,2.1654141557</e>
			<e lid="18">3.0843744295,3.0843743994,2.3121498424,2.198256635</e>
			<e lid="19">3.0843743994,3.084374223,2.5584897461,2.3121498424</e>
			<e lid="20">3.084374223,3.0843743587,2.8496172107,2.5584897461</e>
<!-- ... 1044 like lines cut -->
		</ElementData>
	</MeshData>
	<Boundary>
		<bc name="FixedDisplacement1" type="fix" node_set="VAJ">
			<dofs>x,y,z</dofs>
		</bc>
		<bc name="FixedDisplacement2" type="fix" node_set="STJ">
			<dofs>x,y,z</dofs>
		</bc>
	</Boundary>
	<Loads>
		<surface_load name="PressureLoad1" type="pressure" surface="PressureLoad1">
			<pressure lc="1">-0.005332</pressure>
			<linear>0</linear>
			<symmetric_stiffness>1</symmetric_stiffness>
		</surface_load>
	</Loads>
	<LoadData>
		<load_controller id="1" type="loadcurve">
			<interpolate>SMOOTH</interpolate>
			<points>
				<point>0,0</point>
				<point>1,1</point>
			</points>
		</load_controller>
	</LoadData>
	<Output>
		<plotfile type="febio">
			<var type="displacement" />
			<var type="relative volume" />
			<var type="stress" />
		</plotfile>
	</Output>
</febio_spec>